ligand.pdb
 OpenBabel05042511383D

 29 31  0  0  0  0  0  0  0  0999 V2000
   18.9710   -1.9890   23.6440 N   0  0  0  0  0  0  0  0  0  0  0  0
   12.6890   -2.2050   21.6440 N   0  0  0  0  0  0  0  0  0  0  0  0
   12.9590   -2.2010   19.2780 N   0  0  0  0  0  0  0  0  0  0  0  0
   15.0060   -3.1290   22.7450 C   0  0  0  0  0  0  0  0  0  0  0  0
   15.2740   -2.1550   23.7090 C   0  0  0  0  0  0  0  0  0  0  0  0
   16.0540   -3.8020   22.1190 C   0  0  0  0  0  0  0  0  0  0  0  0
   17.6660   -2.4520   23.3510 C   0  0  0  0  0  0  0  0  0  0  0  0
   17.3790   -3.4590   22.4220 C   0  0  0  0  0  0  0  0  0  0  0  0
   16.6000   -1.8200   24.0060 C   0  0  0  0  0  0  0  0  0  0  0  0
   20.1340   -2.3170   22.9750 C   0  0  0  0  0  0  0  0  0  0  0  0
   21.2830   -1.4380   23.3580 C   0  0  0  0  0  0  0  0  0  0  0  0
   21.9930   -1.7490   24.4550 C   0  0  0  0  0  0  0  0  0  0  0  0
   23.2380   -1.0980   24.8880 C   0  0  0  0  0  0  0  0  0  0  0  0
   23.1670   -0.0160   25.7760 C   0  0  0  0  0  0  0  0  0  0  0  0
   24.4980   -1.6190   24.5630 C   0  0  0  0  0  0  0  0  0  0  0  0
   25.6590   -1.0730   25.1180 C   0  0  0  0  0  0  0  0  0  0  0  0
   24.3290    0.5330   26.3280 C   0  0  0  0  0  0  0  0  0  0  0  0
   25.5730   -0.0020   26.0050 C   0  0  0  0  0  0  0  0  0  0  0  0
   13.3200   -1.7670   20.4860 C   0  0  0  0  0  0  0  0  0  0  0  0
   14.3500   -0.8080   20.4080 C   0  0  0  0  0  0  0  0  0  0  0  0
   14.6200   -0.7160   19.0640 C   0  0  0  0  0  0  0  0  0  0  0  0
   15.5950    0.0380   18.2550 C   0  0  0  0  0  0  0  0  0  0  0  0
   20.2670   -3.1860   22.1240 O   0  0  0  0  0  0  0  0  0  0  0  0
   13.3240   -4.6100   21.3900 O   0  0  0  0  0  0  0  0  0  0  0  0
   12.6370   -3.7870   23.6660 O   0  0  0  0  0  0  0  0  0  0  0  0
   13.7760   -1.5330   18.3820 O   0  0  0  0  0  0  0  0  0  0  0  0
   13.3240   -3.5740   22.4090 S   0  0  0  0  0  0  0  0  0  0  0  0
   19.0320   -1.2860   24.3680 H   0  0  0  0  0  0  0  0  0  0  0  0
   12.5220   -1.5060   22.3650 H   0  0  0  0  0  0  0  0  0  0  0  0
  1 28  1  0  0  0  0
  2 29  1  0  0  0  0
  2 27  1  0  0  0  0
  3 19  2  0  0  0  0
  4  5  1  0  0  0  0
  5  9  2  0  0  0  0
  6  8  1  0  0  0  0
  6  4  2  0  0  0  0
  7  1  1  0  0  0  0
  7  9  1  0  0  0  0
  8  7  2  0  0  0  0
 10 11  1  0  0  0  0
 10  1  1  0  0  0  0
 11 12  2  0  0  0  0
 12 13  1  0  0  0  0
 13 14  1  0  0  0  0
 14 17  2  0  0  0  0
 15 13  2  0  0  0  0
 15 16  1  0  0  0  0
 16 18  2  0  0  0  0
 18 17  1  0  0  0  0
 19  2  1  0  0  0  0
 20 19  1  0  0  0  0
 21 20  2  0  0  0  0
 22 21  1  0  0  0  0
 23 10  2  0  0  0  0
 24 27  2  0  0  0  0
 26 21  1  0  0  0  0
 26  3  1  0  0  0  0
 27  4  1  0  0  0  0
 27 25  2  0  0  0  0
M  END
$$$$
